4erk_ligand
Version: PDBbind v2024

 40 42  0  0  1  0            999 V2000
  -14.3720   18.5960   43.5260 O   0  0  0  0  0  0
  -18.2010   11.6870   41.6460 N   0  0  0  0  0  0
  -15.0640   16.3990   41.3210 N   0  0  0  0  0  0
  -19.1570   14.1480   43.1310 N   0  0  0  0  0  0
  -17.0780   15.2450   42.2000 N   0  0  0  0  0  0
  -15.5210   14.0210   40.7700 N   0  0  0  0  0  0
  -16.1700   11.5950   40.3310 N   0  0  0  0  0  0
  -15.1040   11.0360   39.4660 C   0  0  0  0  0  0
  -17.3070   10.9990   40.8410 C   0  0  0  0  0  0
  -14.3390   18.6630   42.1060 C   0  0  0  0  0  0
  -15.4540   17.8110   41.4880 C   0  0  0  0  0  0
  -19.7900   15.1930   43.9790 C   0  0  0  0  0  0
  -17.6120   18.9170   44.6800 C   0  0  0  0  0  0
  -17.2480   17.7320   45.3730 C   0  0  0  0  0  0
  -18.6880   18.8980   43.7490 C   0  0  0  0  0  0
  -17.9580   16.5340   45.1360 C   0  0  0  0  0  0
  -19.4050   17.6950   43.5070 C   0  0  0  0  0  0
  -15.8920   15.2120   41.4290 C   0  0  0  0  0  0
  -17.9310   14.1240   42.3390 C   0  0  0  0  0  0
  -16.3480   12.8600   40.8850 C   0  0  0  0  0  0
  -17.5580   12.9100   41.6680 C   0  0  0  0  0  0
  -19.0450   16.5060   44.1970 C   0  0  0  0  0  0
  -13.6339   19.1546   44.1203 H   0  0  0  0  0  0
  -14.0218   16.1409   41.0818 H   0  0  0  0  0  0
  -19.6375   13.1648   43.0193 H   0  0  0  0  0  0
  -15.3297    9.9834   39.2398 H   0  0  0  0  0  0
  -14.1375   11.1000   39.9874 H   0  0  0  0  0  0
  -15.0537   11.6098   38.5289 H   0  0  0  0  0  0
  -17.4909   10.0407   40.6224 H   0  0  0  0  0  0
  -14.4741   19.7064   41.7849 H   0  0  0  0  0  0
  -13.3694   18.2906   41.7438 H   0  0  0  0  0  0
  -15.7025   18.2413   40.5066 H   0  0  0  0  0  0
  -16.3314   17.8734   42.1485 H   0  0  0  0  0  0
  -20.7541   15.4879   43.5390 H   0  0  0  0  0  0
  -19.9555   14.7938   44.9906 H   0  0  0  0  0  0
  -17.1112   19.7664   44.8466 H   0  0  0  0  0  0
  -16.4914   17.7456   46.0267 H   0  0  0  0  0  0
  -18.9407   19.7346   43.2630 H   0  0  0  0  0  0
  -17.7024   15.7000   45.6250 H   0  0  0  0  0  0
  -20.1611   17.6853   42.8526 H   0  0  0  0  0  0
  1 10  1  0  0  0
  1 23  1  0  0  0
  2  9  2  0  0  0
  2 21  1  0  0  0
  3 11  1  0  0  0
  3 18  1  0  0  0
  3 24  1  0  0  0
  4 12  1  0  0  0
  4 19  1  0  0  0
  4 25  1  0  0  0
  5 18  2  0  0  0
  5 19  1  0  0  0
  6 18  1  0  0  0
  6 20  2  0  0  0
  7  8  1  0  0  0
  7  9  1  0  0  0
  7 20  1  0  0  0
  8 26  1  0  0  0
  8 27  1  0  0  0
  8 28  1  0  0  0
  9 29  1  0  0  0
 10 11  1  0  0  0
 10 30  1  0  0  0
 10 31  1  0  0  0
 11 32  1  0  0  0
 11 33  1  0  0  0
 12 22  1  0  0  0
 12 34  1  0  0  0
 12 35  1  0  0  0
 13 14  2  0  0  0
 13 15  1  0  0  0
 13 36  1  0  0  0
 14 16  1  0  0  0
 14 37  1  0  0  0
 15 17  2  0  0  0
 15 38  1  0  0  0
 16 22  2  0  0  0
 16 39  1  0  0  0
 17 22  1  0  0  0
 17 40  1  0  0  0
 19 21  2  0  0  0
 20 21  1  0  0  0
M  END
$$$$