
     RDKit          3D

 20 21  0  0  0  0  0  0  0  0999 V2000
   -6.9423   -1.1027    1.6163 C   0  0  0  0  0  0  0  0  0  0  0  0
   -6.2816   -1.8355    0.4585 C   0  0  0  0  0  0  0  0  0  0  0  0
   -5.6500   -0.9187   -0.4439 O   0  0  0  0  0  0  0  0  0  0  0  0
   -4.4244   -0.5108   -0.1334 C   0  0  0  0  0  0  0  0  0  0  0  0
   -3.7955   -0.8575    0.8274 O   0  0  0  0  0  0  0  0  0  0  0  0
   -3.9030    0.4647   -1.1914 C   0  0  0  0  0  0  0  0  0  0  0  0
   -2.6003    0.9336   -0.8355 N   0  0  0  0  0  0  0  0  0  0  0  0
   -1.4448    0.2220   -1.0060 C   0  0  0  0  0  0  0  0  0  0  0  0
   -1.2690   -0.7538   -1.6955 O   0  0  0  0  0  0  0  0  0  0  0  0
   -0.5025    0.9378   -0.2591 N   0  0  0  0  0  0  0  0  0  0  0  0
   -1.1784    1.9796    0.3452 C   0  0  0  0  0  0  0  0  0  0  0  0
   -2.4261    1.9722    0.0250 N   0  0  0  0  0  0  0  0  0  0  0  0
   -0.5716    2.9510    1.2847 C   0  0  0  0  0  0  0  0  0  0  0  0
    0.8468    0.5705   -0.1463 C   0  0  0  0  0  0  0  0  0  0  0  0
    1.1743   -0.7750   -0.0039 C   0  0  0  0  0  0  0  0  0  0  0  0
    2.4980   -1.1576    0.0921 C   0  0  0  0  0  0  0  0  0  0  0  0
    3.4890   -0.1911    0.0517 C   0  0  0  0  0  0  0  0  0  0  0  0
    3.1777    1.1495   -0.0992 C   0  0  0  0  0  0  0  0  0  0  0  0
    1.8533    1.5296   -0.2060 C   0  0  0  0  0  0  0  0  0  0  0  0
    5.3139   -0.7117    0.1991 Br  0  0  0  0  0  0  0  0  0  0  0  0
  1  2  1  0
  2  3  1  0
  3  4  1  0
  4  5  2  0
  4  6  1  0
  6  7  1  0
  7  8  1  0
  7 12  1  0
  8  9  2  0
  8 10  1  0
 10 11  1  0
 10 14  1  0
 11 12  2  0
 11 13  1  0
 14 15  2  0
 14 19  1  0
 15 16  1  0
 16 17  2  0
 17 18  1  0
 17 20  1  0
 18 19  2  0
M  END
$$$$
